     341
 i =        0, time =        0.000, E =     -4294.7522093717
 Li         0.0000000000        0.0000000000        0.0000000000
 Li        -7.6015600000       -3.4108700000        8.0833700000
 Li         6.0873400000       -1.3157700000        8.0841700000
 Li        -6.3649600000        4.4253300000       -5.4321300000
 Li        -3.0346000000        4.6867700000        0.6768500000
 Li        -2.2862700000       -7.5962300000       -3.0486300000
 Li        -4.8825000000        0.9854800000        5.5008600000
 Li        -0.7898100000        6.5703700000       -0.8493800000
 Li         6.0945400000        7.8392700000       -6.4505300000
 Li         5.6022400000       -5.8712300000        1.5767600000
 Li         1.6479000000       -4.6886500000       -2.5752300000
 Li         0.4401700000        4.9023700000       -5.9863300000
 Li         1.4372900000        4.7580700000        4.1574600000
 Li         4.7583400000       -1.1083100000       -0.0468800000
  O         5.2383400000       -2.8273800000       -1.4841100000
  F         6.4873400000       -5.7563300000       -3.5661300000
  C         6.6198400000       -4.5136400000       -3.0653300000
  S         5.4950400000       -4.2955900000       -1.6405400000
  O         5.8458400000       -5.1136100000       -0.5360200000
  F         7.9129400000       -4.3153300000       -2.7390300000
  N         3.9147500000       -4.9683000000       -2.0133800000
  O         3.4665100000       -5.8173300000        0.3407100000
  F         6.3456400000       -3.7374700000       -4.0815300000
  S         3.3071500000       -6.3122300000       -1.0314300000
  O         1.9331100000       -6.4236300000       -1.5886600000
  F         5.3993400000       -7.9098300000       -0.8442500000
  F         4.5035500000       -7.8206300000       -2.8091300000
  C         4.2465000000       -7.8004300000       -1.4694200000
  F         3.5750400000       -8.9517300000       -1.1836800000
  O        -0.3763900000       -6.1060300000        0.8201200000
  F        -0.9765700000       -2.5316900000        2.4061500000
  C        -0.9303000000       -3.9254100000        2.3869800000
  S        -0.2349800000       -4.6285700000        0.8956100000
  O         0.9324500000       -3.9824600000        0.3579000000
  F        -0.1429200000       -4.2768100000        3.4304600000
  N        -1.4454500000       -4.1224600000       -0.3798400000
  O        -2.7072400000       -5.4747400000       -1.9016700000
  F        -2.2098700000       -4.2664700000        2.5913100000
  S        -2.8805800000       -4.9919100000       -0.5818200000
  O        -3.0811000000       -5.9603300000        0.5170500000
  F        -3.7976800000       -2.6785100000       -1.3476100000
  F        -4.1455500000       -3.1673300000        0.7904800000
  C        -4.1168000000       -3.6177100000       -0.4452600000
  F        -5.3203400000       -3.9985600000       -0.7676200000
  O         2.5009900000        2.9525700000        2.5976900000
  F         4.0615100000        3.8041400000       -0.1234000000
  C         2.7572100000        3.5365500000       -0.1410100000
  S         2.3212700000        2.3805200000        1.2279700000
  O         2.9412600000        1.0765800000        1.0101600000
  F         2.0538500000        4.6600700000       -0.1187800000
  N         0.6477900000        1.9624600000        1.1526600000
  O         0.0024400000        4.0234300000        2.8319400000
  F         2.5243300000        2.9271900000       -1.3687400000
  S        -0.4028300000        2.7187700000        2.2463000000
  O        -1.4526200000        2.8112500000        1.2274300000
  F        -1.6833300000        0.4676000000        2.8395400000
  F        -1.7298500000        2.0735500000        4.3297200000
  C        -0.9298000000        1.4734200000        3.4107800000
  F         0.1523900000        0.8965500000        4.0656200000
  O         2.2267300000       -4.9102600000       -4.6220300000
  F         0.2813100000       -4.8374000000       -7.3349300000
  C         0.8369000000       -3.7494000000       -6.7673300000
  S         2.4549000000       -4.1836500000       -5.8901300000
  O         3.4004400000       -3.0783600000       -5.9478300000
  F         0.9482600000       -2.7721100000       -7.6734300000
  N         3.2968500000       -5.3643200000       -6.8248300000
  O         3.9543200000       -7.5979300000       -6.4502300000
  F        -0.0432600000       -3.3724800000       -5.8465300000
  S         2.7080400000       -7.0667300000       -7.0486300000
  O         1.4870500000       -7.1828300000       -6.2579300000
  F         1.4678400000       -6.6435300000       -9.1538300000
  F         1.9685800000       -8.7672300000       -8.9648100000
  C         2.4204500000       -7.4805300000       -8.7799300000
  F         3.5017400000       -7.2053300000       -9.5493300000
  O         3.0379300000       -0.8959400000       -1.4617400000
  F         2.3606900000        0.0318000000       -5.1403300000
  C         3.0029500000        0.1163600000       -3.9774300000
  S         2.2402400000       -0.8887300000       -2.6761300000
  O         1.7495000000       -2.0897300000       -3.3547300000
  F         4.2509300000       -0.2229800000       -4.2246300000
  N         0.7099000000       -0.1770400000       -2.1696300000
  O        -0.5524900000        1.5737200000       -1.6847600000
  F         3.1181600000        1.4243000000       -3.5547300000
  S        -0.0908700000        1.0793800000       -2.9790300000
  O         0.6760500000        1.9549400000       -3.8119300000
  F        -2.1948200000        1.1466000000       -4.6020300000
  F        -1.9791400000       -0.6903300000       -3.3630300000
  C        -1.3042800000        0.2669000000       -4.0716300000
  F        -0.7014100000       -0.2778400000       -5.1173300000
  O        -5.2973300000       -8.1737300000        4.6947300000
  F        -7.5471600000       -6.7381300000        2.8747700000
  C        -7.7642600000       -7.9198300000        3.4298400000
  S        -6.7232600000       -8.2406300000        4.8749100000
  O        -7.1028600000       -9.4045300000        5.6695400000
  F        -9.0559600000       -7.8742300000        3.7572500000
  N        -7.0558600000       -6.7915300000        5.8220700000
  O        -6.6477600000       -4.4132100000        6.5215700000
  F        -7.7854600000       -8.9226300000        2.6070600000
  S        -5.8166600000       -5.6177300000        6.3119700000
  O        -5.1836000000       -6.3452300000        7.4086900000
  F        -3.6001600000       -6.2401300000        5.0211900000
  F        -3.9207300000       -4.2045200000        5.2483800000
  C        -4.5635000000       -5.3398600000        4.9961800000
  F        -5.0907000000       -5.2229300000        3.7734600000
  O        -5.8998600000        7.7493700000       -3.1255300000
  F        -8.1949600000        8.9086700000       -0.4122000000
  C        -7.1274600000        8.8765700000       -1.1586500000
  S        -7.1962600000        7.6248700000       -2.4563300000
  O        -8.4441600000        7.4193700000       -3.2114300000
  F        -6.9588600000       10.1243700000       -1.6859500000
  N        -6.9109600000        6.1545700000       -1.4947500000
  O        -7.4919600000        4.7195700000       -3.5758300000
  F        -6.0562600000        8.6250700000       -0.3704400000
  S        -7.3359600000        4.5716700000       -2.1338700000
  O        -6.1897600000        3.8056000000       -1.5925200000
  F        -9.8929600000        5.2924700000       -1.7221300000
  F        -8.9997600000        4.2017900000       -0.0938400000
  C        -9.0681600000        4.2927000000       -1.4671800000
  F        -9.6647600000        3.1383000000       -1.8553700000
  O         7.1383400000        2.3967900000        6.6631000000
  F         4.7673400000        1.2351600000        3.9331500000
  C         5.8059400000        1.9541500000        4.4628800000
  S         6.1427400000        1.4610800000        6.1755000000
  O         6.4790400000        0.0651400000        6.5053500000
  F         6.8936400000        1.6473000000        3.7127100000
  N         4.7357400000        2.0185200000        7.1287200000
  O         4.2893600000       -0.1388500000        8.2310700000
  F         5.5681400000        3.2881500000        4.3312400000
  S         3.5660600000        1.0355700000        7.8139700000
  O         2.9275500000        1.9066800000        8.7898700000
  F         2.8606100000        0.2149800000        5.4954000000
  F         1.5385300000        1.6438700000        6.3114900000
  C         2.3348400000        0.5880000000        6.6250500000
  F         1.5322600000       -0.3994100000        7.1336000000
  O        -1.6743100000       -7.8796300000       -6.4168300000
  F        -3.2776300000       -9.0148300000       -9.7121600000
  C        -2.2793800000       -8.5907300000       -8.9213300000
  S        -2.7002800000       -8.6555300000       -7.1409300000
  O        -2.9376700000      -10.0081300000       -6.6202300000
  F        -1.1151200000       -9.3428300000       -9.1483700000
  N        -4.2122300000       -7.9911300000       -6.7790300000
  O        -5.8087600000       -6.4071300000       -5.7396300000
  F        -2.1127400000       -7.3582300000       -9.3504500000
  S        -4.3771300000       -6.5372300000       -5.6575300000
  O        -3.7112400000       -6.8720300000       -4.4362300000
  F        -4.5748200000       -4.2547900000       -7.1210300000
  F        -2.6382700000       -5.1550100000       -7.3076300000
  C        -3.6637400000       -4.9793100000       -6.4494300000
  F        -3.2165400000       -4.0912000000       -5.5525300000
  O        -2.6434300000        3.8019000000       -7.9915300000
  F        -5.7332600000        3.4834900000       -8.2015300000
  C        -5.0722500000        4.4240700000       -8.9966300000
  S        -3.3626400000        3.7570700000       -9.2785900000
  O        -2.7294000000        4.3489700000      -10.4780600000
  F        -5.9357600000        4.4970700000      -10.0320000000
  N        -3.5812700000        2.0324500000       -9.6608200000
  O        -3.8947400000        1.4109600000       -7.0298300000
  F        -5.0036800000        5.5945700000       -8.4082300000
  S        -3.4903500000        0.8737700000       -8.3926300000
  O        -4.3469900000       -0.1396200000       -8.9629900000
  F        -0.9383400000        1.3037400000       -7.9052300000
  F        -1.3109300000        0.2370200000       -9.7445400000
  C        -1.7685900000        0.3570900000       -8.4688300000
  F        -1.6007900000       -0.8121300000       -7.9140300000
  O        -4.5118200000       -0.4702500000        1.9052100000
  F        -7.2636600000       -0.8709800000        0.7106300000
  C        -6.6982600000        0.3497800000        0.5097900000
  S        -5.5524600000        0.5758700000        1.8931200000
  O        -6.3028600000        0.7953500000        3.1295700000
  F        -6.0255600000        0.1550400000       -0.6053400000
  N        -4.8046400000        2.1551900000        1.6458200000
  O        -4.8374000000        2.7452600000        4.2636900000
  F        -7.6120600000        1.3527500000        0.3355900000
  S        -4.9238900000        3.3694500000        2.8930700000
  O        -3.7133800000        4.1511600000        2.5312600000
  F        -7.4924600000        3.3526300000        3.4856900000
  F        -6.8860600000        4.3797200000        1.5953100000
  C        -6.5766600000        4.1161300000        2.8687600000
  F        -6.5530600000        5.3282700000        3.5115300000
  O         4.2690400000       -4.7834400000        3.0814500000
  F         2.5488800000       -4.2984800000        6.1025300000
  C         3.3413400000       -3.4379200000        5.4252600000
  S         4.5767400000       -4.2409500000        4.4167000000
  O         5.6365400000       -4.9559600000        5.0759300000
  F         2.6402800000       -2.7026400000        4.5354800000
  N         5.4782400000       -2.9370500000        3.8574000000
  O         6.7779400000       -4.4516700000        2.2382500000
  F         3.8668400000       -2.5449300000        6.2607500000
  S         6.8002400000       -3.0657500000        2.6185200000
  O         6.2494400000       -2.1433200000        1.6425300000
  F         8.5064400000       -3.5114100000        4.4462500000
  F         8.2987400000       -1.4191500000        4.0868400000
  C         8.3388400000       -2.5962400000        3.5240000000
  F         9.3221400000       -2.6069300000        2.6108000000
  O        -7.4564600000        1.9581400000       -6.3579300000
  F       -10.1429600000        3.3800900000       -7.0129300000
  C       -10.0196600000        2.4281000000       -6.0564300000
  S        -8.7220600000        1.2314900000       -6.3492300000
  O        -8.9634600000        0.3917000000       -7.5185300000
  F        -9.8395600000        3.0636400000       -4.9157300000
  N        -8.8472600000        0.0865400000       -5.0398300000
  O        -7.3374600000        1.6210200000       -3.4673300000
  F       -11.2444600000        1.9154800000       -5.8746300000
  S        -7.8072600000        0.2280200000       -3.6111300000
  O        -8.6682600000       -0.4564200000       -2.5569300000
  F        -6.9133600000       -1.9348700000       -4.7533300000
  F        -5.7131600000       -1.3512700000       -3.0549300000
  C        -6.4179600000       -0.8189400000       -4.1324300000
  F        -5.5795600000       -0.1675200000       -4.8950300000
  O         0.7439600000        7.6340700000        1.1095400000
  F         1.6500900000       10.1224700000        3.0994100000
  C         1.1192400000        8.9740700000        3.4588100000
  S         1.5967400000        7.7300700000        2.2442400000
  O         1.4758700000        6.3776700000        2.8076300000
  F         1.5521800000        8.6725700000        4.6844400000
  N         3.1942300000        7.8089700000        1.6281300000
  O         5.0797400000        9.0770700000        2.4996700000
  F        -0.2324400000        9.0987700000        3.5989600000
  S         4.4525000000        7.7695700000        2.7703200000
  O         3.9462700000        7.5695700000        4.1058900000
  F         4.8410400000        5.1731700000        2.3521100000
  F         6.5193400000        6.1713700000        3.1836700000
  C         5.5507400000        6.3515700000        2.3309400000
  F         6.0996400000        6.4704700000        1.1094400000
  O         1.2032400000       -0.9036400000        1.4433400000
  H         1.8175400000       -0.1342300000        1.6292500000
  H         1.7535200000       -1.7571400000        1.5114300000
  O        -1.2369200000        4.5909700000       -0.8243300000
  H        -1.4293800000        4.0507600000       -1.7001200000
  H        -0.9387700000        3.7458700000       -0.2554900000
  O        -1.7124500000        6.5136700000        1.3241900000
  H        -0.8055500000        6.9558700000        1.4752500000
  H        -2.4358300000        7.0712700000        1.8254300000
  O         0.0672200000        4.2104900000        5.7281700000
  H        -0.2384000000        3.2492200000        5.6657000000
  H        -0.7547200000        4.7775700000        6.0003100000
  O        -2.6989400000        6.9114700000       -2.8119300000
  H        -2.1492800000        6.0915700000       -3.1066300000
  H        -3.7014700000        6.7202700000       -2.9416300000
  O        -4.4265700000        6.3491700000        0.3113800000
  H        -5.2578900000        5.9972700000       -0.1569700000
  H        -4.4837300000        7.2817700000        0.7201300000
  O        -6.6946600000        7.4334700000       -7.7051300000
  H        -5.7954600000        7.8604700000       -7.4328300000
  H        -6.7200600000        7.2645700000       -8.7106300000
  O         1.0025000000        6.6525700000       -1.9961400000
  H         1.8162800000        6.6472700000       -1.4174600000
  H         1.3817600000        6.4580700000       -2.9512300000
  O         1.3890000000        6.7128700000       -5.0548300000
  H         2.3624400000        6.5509700000       -5.3930300000
  H         1.1582500000        7.7344700000       -5.0307300000
  O         6.2845400000        6.1697700000       -5.1342300000
  H         6.7185400000        6.0785700000       -4.1517300000
  H         5.3770400000        5.5954700000       -5.2748300000
  O         3.3420700000       -2.6571300000        1.0217100000
  H         2.7284700000       -3.2338700000        0.3960400000
  H         3.6350200000       -3.2437200000        1.7916100000
  O         2.1000900000        3.5789300000       -5.6108300000
  H         1.8720600000        2.8625500000       -4.9030300000
  H         2.2781700000        2.9917400000       -6.4360300000
  O        -3.5947900000        2.9783600000       -0.8252100000
  H        -4.6179900000        2.9798600000       -0.8819300000
  H        -3.3804100000        2.2298700000       -0.1076700000
  O        -2.9767900000        3.6312400000       -3.3478300000
  H        -3.6708200000        3.4278700000       -4.1440300000
  H        -3.3446500000        3.4415100000       -2.4093300000
  O         2.8076600000        5.6185700000        5.4512200000
  H         3.4587400000        5.3546700000        6.1426500000
  H         3.3040900000        6.3287700000        4.8681100000
  O        -7.6690600000       -4.7600400000       -6.9157300000
  H        -7.2211600000       -5.4765400000       -6.2986300000
  H        -8.6393600000       -5.0687200000       -6.9987300000
  O         7.9356400000       -7.6507300000       -6.2867300000
  H         8.8034400000       -7.9951300000       -6.8206300000
  H         8.2896400000       -7.4287300000       -5.3946300000
  O         6.2373400000        7.5662700000        7.9620700000
  H         6.6797400000        6.7244700000        7.6013300000
  H         6.4116400000        8.4011700000        7.2926700000
  O         5.9206400000       -5.1247000000       -7.8930300000
  H         5.0123400000       -5.2192300000       -7.4685300000
  H         6.0320400000       -5.8172300000       -8.5732300000
  O        -7.0781600000       -1.3615000000       -8.2741300000
  H        -7.6771600000       -0.5702900000       -8.0513300000
  H        -6.1860600000       -1.0700000000       -8.7059300000
  O        -5.0122200000        2.9530200000       -4.8211300000
  H        -5.4454600000        2.2155000000       -4.2308300000
  H        -4.7981500000        2.6119900000       -5.7753300000
  O         5.9708400000       -2.2394700000       -6.6402300000
  H         5.0722400000       -2.6618800000       -6.4210300000
  H         6.3529400000       -2.0257800000       -5.7092300000
  O        -3.7954300000       -8.1616300000        2.1675800000
  H        -4.3989300000       -7.8028300000        2.9528900000
  H        -3.4639600000       -7.4222300000        1.4744500000
  O         6.8885400000       -6.8389300000        6.6995800000
  H         6.4312400000       -6.2738300000        6.0053200000
  H         7.8752400000       -6.7129300000        6.4465300000
  O        -1.4626100000        4.2950100000       -5.5503300000
  H        -1.9726400000        4.4287600000       -6.3972300000
  H        -2.1456700000        4.1518100000       -4.7396300000
  O         3.9395500000        5.5224700000       -6.3261300000
  H         3.2019200000        4.8493700000       -5.9785300000
  H         4.1379900000        5.3045700000       -7.3256300000
  O         0.5778700000        4.9798700000       -8.1393300000
  H         0.3351100000        4.3219300000       -8.8853300000
  H         1.1455500000        5.7252700000       -8.5624300000
  O        -3.8596600000       -0.8309200000        4.9885200000
  H        -3.2088700000       -1.4128700000        5.5212600000
  H        -4.0137700000       -1.2277300000        4.0718800000
  O         6.9650400000        5.2042700000        6.3305000000
  H         7.5094400000        5.8331700000        5.7319200000
  H         7.3655400000        4.2427800000        6.4914900000
  O        -2.0302600000       -0.5722400000       -0.1800300000
  H        -2.8028200000       -0.1011700000       -0.6277000000
  H        -2.4898400000       -0.9656400000        0.5868500000
  O        -5.0385200000        5.9307700000       -4.9089300000
  H        -4.1730000000        6.1810700000       -5.3389300000
  H        -5.5123600000        6.6837700000       -4.4216300000
  O         6.0558400000        0.2921000000       -0.7731200000
  H         6.1279400000        1.3233300000       -0.6861200000
  H         6.7917400000       -0.0880200000       -1.4393100000
  O         6.8477400000       -3.1788500000        7.2603100000
  H         6.3561400000       -3.9802400000        7.7608700000
  H         6.6097400000       -3.1801000000        6.2787700000
  O        -7.7630600000        5.2908700000       -6.5195300000
  H        -7.4464600000        6.1173700000       -6.9751300000
  H        -8.7294600000        5.4460700000       -6.1936300000
  O         4.6911400000        4.7036700000        7.3350700000
  H         4.6760400000        3.6961000000        7.5602300000
  H         5.6241400000        4.9347700000        6.9142800000
  O        -6.8264600000        0.6770300000        6.5553000000
  H        -6.9354600000        1.2027000000        7.3970300000
  H        -7.7459600000        0.5122500000        6.2034300000
  O        -0.9044400000       -7.8956300000       -1.1279500000
  H        -0.2366600000       -7.9095300000       -1.8610500000
  H        -0.6590400000       -7.1401300000       -0.4522900000
  O        -0.2207900000       -4.4221800000       -3.2008300000
  H        -0.9732100000       -4.4712600000       -2.5091300000
  H        -0.3810400000       -3.6192200000       -3.7956300000
  O        -0.4563300000       -7.1906300000       -3.9610300000
  H        -0.6889000000       -7.3269300000       -4.9477300000
  H        -0.1950800000       -6.2357300000       -3.8752300000
