     341
 i =        0, time =        0.000, E =     -4294.7572413698
 Li         0.0000000000        0.0000000000        0.0000000000
 Li        -3.7986800000       -4.9253000000       -6.5984200000
 Li        -6.9431600000       -2.5180000000        6.4159300000
 Li        -1.9534500000       -7.1506200000        1.3353800000
 Li         7.1813400000       -5.6911700000        1.6931700000
 Li        -3.6157100000        4.7592100000       -0.2629700000
 Li         3.0025900000        3.4535700000       -3.2673200000
 Li         0.2320600000       -7.3719400000       -5.6990200000
 Li         5.2102000000        5.6672300000        0.6472900000
 Li         4.9475300000        1.3841500000        0.9531400000
 Li        -0.4256600000       -5.1962000000        5.7508300000
 Li         3.5755300000        2.2537000000       -7.4566200000
 Li         8.0007400000        6.9256500000        6.9295900000
 Li         5.5063100000        1.3835100000        6.7855000000
  O         5.2536100000        3.2297300000       -2.6562400000
  F         8.1690400000        4.1589000000       -2.4681200000
  C         7.8950400000        3.0199600000       -1.8573900000
  S         6.0962400000        2.9379000000       -1.5123900000
  O         5.5726500000        3.7257400000       -0.3164700000
  F         8.3713400000        2.0733500000       -2.6300400000
  N         5.7333400000        1.3411300000       -1.0447700000
  O         4.0675100000       -0.3614000000       -0.6507800000
  F         8.6096400000        2.9490200000       -0.7732600000
  S         4.4238100000        0.4561000000       -1.8066700000
  O         3.3773100000        1.3661100000       -2.2766300000
  F         6.3238400000       -0.9715000000       -2.7797200000
  F         5.6867400000        0.6444000000       -4.0645200000
  C         5.2951500000       -0.2577000000       -3.1645200000
  F         4.4858800000       -1.0547000000       -3.8552200000
  O         2.9833800000        5.1454400000        0.4782500000
  F         1.0761500000        7.0028200000       -1.3936000000
  C         0.5524600000        6.0256500000       -0.6028300000
  S         1.7807400000        4.7511800000       -0.2392100000
  O         1.9653300000        4.0904800000       -1.5494800000
  F         0.1054000000        6.6016500000        0.5125700000
  N         0.8892300000        3.5542100000        0.6183300000
  O         1.0559700000        1.1241000000        1.5155600000
  F        -0.5448000000        5.4801100000       -1.2036100000
  S         1.6759100000        2.4569500000        1.6829400000
  O         3.1268400000        2.4774400000        1.4085000000
  F         1.9915600000        2.4341600000        4.4055400000
  F         0.0326600000        2.9305600000        3.7302800000
  C         1.2871700000        3.0758000000        3.4144700000
  F         1.5780500000        4.3888100000        3.4576100000
  O         5.2004800000       -6.0990400000        1.5244700000
  F         2.6346700000       -7.0808800000        3.2781200000
  C         3.0301400000       -7.5378100000        2.0859900000
  S         3.7796200000       -6.1968200000        1.1311400000
  O         2.8587300000       -5.0373000000        1.0429900000
  F         3.8433200000       -8.6315800000        2.1083400000
  N         3.9394300000       -6.7196900000       -0.5165700000
  O         3.5660000000       -6.7335200000       -2.8571200000
  F         1.9917800000       -8.0571800000        1.4871000000
  S         3.0572400000       -5.9159600000       -1.8042900000
  O         1.6567300000       -5.9894500000       -1.3401200000
  F         4.9353200000       -4.1303000000       -2.1115900000
  F         3.0026600000       -3.2975000000       -1.3390600000
  C         3.5692900000       -4.2806000000       -2.2133200000
  F         3.1747800000       -4.0079000000       -3.4757200000
  O         0.1914000000        5.7504100000       -4.6747200000
  F        -3.4537500000        4.0918200000       -4.7359200000
  C        -2.1622500000        4.2942800000       -4.2530200000
  S        -0.9802800000        5.1603600000       -5.3089200000
  O        -1.6240900000        5.9314000000       -6.3521200000
  F        -2.3574500000        4.9929700000       -3.1876200000
  N        -0.1425400000        3.8904600000       -6.1698200000
  O         0.9106700000        5.4958500000       -7.7651200000
  F        -1.6529300000        3.1510700000       -3.8337200000
  S         0.5663200000        4.1064500000       -7.7148200000
  O         1.6402900000        3.1561300000       -7.7465200000
  F        -0.0774500000        4.5147200000      -10.1902900000
  F        -1.7605200000        4.5855900000       -8.8350200000
  C        -0.6129100000        3.9696700000       -9.0901200000
  F        -0.8180500000        2.6912400000       -9.4335500000
  O        -1.6442300000       -7.8919300000       -5.0218200000
  F        -5.4245600000       -7.8530600000       -3.7180200000
  C        -4.4625600000       -7.9609200000       -4.6618200000
  S        -2.7314100000       -7.8244300000       -4.0189200000
  O        -2.8069000000       -8.7955400000       -2.8745200000
  F        -4.5813600000       -9.1734000000       -5.2336200000
  N        -2.1524700000       -6.4675500000       -3.0544200000
  O        -3.7027600000       -5.0500000000       -4.3595200000
  F        -4.6744600000       -7.0741300000       -5.6106200000
  S        -3.2951200000       -5.1427000000       -2.9799200000
  O        -4.2712500000       -5.2140000000       -1.9382900000
  F        -2.7006500000       -2.5064000000       -2.5738600000
  F        -1.1918400000       -3.6446000000       -3.5821200000
  C        -2.1266000000       -3.6838000000       -2.5982500000
  F        -1.4901600000       -3.9335000000       -1.4517100000
  O        -2.2378600000       -0.5329000000        0.0387300000
  F        -4.5075600000       -0.1569000000       -2.0464300000
  C        -4.7720600000       -0.0271000000       -0.7134800000
  S        -3.5994700000       -1.0303000000        0.3389700000
  O        -3.8592300000       -2.4800000000        0.4485500000
  F        -4.6586600000        1.3250000000       -0.4702100000
  N        -4.0747900000       -0.8316000000        1.9744100000
  O        -2.4400600000        1.1664000000        2.4476100000
  F        -6.0470600000       -0.4060000000       -0.4991900000
  S        -3.0466600000       -0.0082000000        3.1065200000
  O        -4.1220100000        0.3089000000        4.0717100000
  F        -0.7600900000       -1.2097000000        2.7198800000
  F        -2.1999100000       -2.3472000000        3.7980100000
  C        -1.7519400000       -1.1426000000        3.6015000000
  F        -1.3118000000       -0.6376000000        4.7491200000
  O        -2.5042200000       -1.9578000000        7.5224800000
  F        -3.3096500000        1.1216000000        7.2423900000
  C        -3.9356700000        0.3409000000        8.1522800000
  S        -3.8341300000       -1.4264000000        7.8452800000
  O        -4.8866600000       -1.6817000000        6.8018600000
  F        -3.4231200000        0.6719000000        9.3114800000
  N        -4.3119400000       -2.2218000000        9.2723800000
  O        -6.8341600000       -1.9602000000        8.5137800000
  F        -5.2054600000        0.7972000000        8.1536800000
  S        -5.9918600000       -2.3458000000        9.6249800000
  O        -5.8764600000       -3.7819000000        9.8471800000
  F        -5.5824600000       -1.8000000000       12.0791800000
  F        -7.6656600000       -1.5575000000       11.4272800000
  C        -6.3554600000       -1.4072000000       11.0980800000
  F        -6.2442600000       -0.0752000000       10.9507800000
  O        -6.8264600000       -7.1796500000        7.0946200000
  F        -7.9094600000       -6.2202400000        9.7573800000
  C        -8.5413600000       -5.6726800000        8.6667800000
  S        -7.5073600000       -5.9006400000        7.1621400000
  O        -6.7786600000       -4.6322000000        6.9650200000
  F        -9.6900600000       -6.3355400000        8.5848800000
  N        -8.4817600000       -5.6002900000        5.7335300000
  O        -9.6272600000       -6.8064100000        3.7038100000
  F        -8.6728600000       -4.4259000000        8.9443800000
  S        -9.6756600000       -6.7670600000        5.1876600000
  O        -9.3149600000       -8.0244800000        5.9511100000
  F       -11.8231000000       -6.5618100000        6.8579900000
  F       -12.1615300000       -6.1839900000        4.7506900000
  C       -11.2683500000       -6.0616700000        5.7306000000
  F       -11.2115200000       -4.6803000000        5.7116700000
  O         2.8468600000       -3.9827000000       -7.5319200000
  F         5.4908400000       -3.2629000000       -6.1091200000
  C         5.0173600000       -2.4936000000       -7.1389200000
  S         3.3127100000       -2.5922000000       -7.4418200000
  O         2.9177900000       -1.6096000000       -8.4838200000
  F         5.3388900000       -1.2278000000       -6.8922200000
  N         2.4157000000       -2.1566000000       -6.0026200000
  O         1.3526900000       -0.5274000000       -4.4792200000
  F         5.7299400000       -2.9455000000       -8.2093200000
  S         1.7148400000       -0.5661000000       -5.8860200000
  O         2.6290400000        0.4063000000       -6.4956200000
  F         0.3282200000       -0.6312000000       -8.1925200000
  F        -0.5415900000        0.6316000000       -6.7068200000
  C         0.1805300000       -0.5039000000       -6.9133200000
  F        -0.6840900000       -1.4219000000       -6.4963200000
  O        -4.4186600000        6.2203600000        6.4089500000
  F        -5.5452600000        3.6868200000        8.0565800000
  C        -5.9404600000        3.9881900000        6.8427000000
  S        -5.7611600000        5.7479600000        6.7077500000
  O        -6.6504600000        6.2932700000        7.7248800000
  F        -5.0386600000        3.3484500000        6.0088300000
  N        -6.6677600000        6.2271100000        5.3416400000
  O        -4.8037600000        5.9464000000        3.5898800000
  F        -7.1874600000        3.5921000000        6.6202200000
  S        -5.8233600000        6.8879000000        3.9829900000
  O        -6.9383600000        7.0436100000        2.9855200000
  F        -4.3199900000        8.7495900000        3.2721500000
  F        -4.2978900000        8.6035000000        5.4337400000
  C        -5.0474600000        8.5004500000        4.3288400000
  F        -6.0614600000        9.4265800000        4.4059000000
  O        -6.4510600000       -8.0059500000        0.6591700000
  F        -6.8794600000       -9.5920300000       -1.6880300000
  C        -8.0309600000       -9.3096200000       -1.0153500000
  S        -7.7388600000       -7.8762800000        0.0760800000
  O        -8.9812600000       -7.5985600000        0.8692100000
  F        -9.0417600000       -9.0966000000       -1.8718600000
  N        -7.4548600000       -6.6298100000       -0.9900000000
  O        -9.8412600000       -6.5185900000       -1.7255700000
  F        -8.3034600000      -10.4487900000       -0.3235800000
  S        -8.7649600000       -5.5764600000       -1.4411200000
  O        -8.9828600000       -4.7119000000       -0.2551000000
  F        -7.4335600000       -3.7114000000       -2.8943200000
  F        -9.3575600000       -4.3321000000       -3.6618200000
  C        -8.2994600000       -4.8152000000       -3.0166200000
  F        -7.6249600000       -5.6945300000       -3.7719200000
  O         5.3729600000        3.2685800000        5.5591200000
  F         5.3358000000        6.8643600000        4.4708800000
  C         4.8198400000        5.6227200000        4.5870200000
  S         6.0878400000        4.5120100000        5.2060300000
  O         6.9652400000        5.1482500000        6.2101100000
  F         3.7698400000        5.8064300000        5.3937300000
  N         7.0906400000        4.2330400000        3.8333300000
  O         7.5323400000        1.8243300000        4.5395100000
  F         4.3168400000        5.2276300000        3.4023800000
  S         7.3813400000        2.6109700000        3.3124200000
  O         6.2488400000        2.4630400000        2.3435900000
  F         9.9236400000        2.7957500000        3.5497100000
  F         9.0407400000        3.9262300000        1.8756900000
  C         9.0103400000        2.7193700000        2.5675800000
  F         9.2959400000        1.7079500000        1.7637800000
  O         6.6009400000        7.3053000000       -8.1582200000
  F         4.4098900000        8.9292800000       -6.6705200000
  C         4.0529200000        7.7233700000       -7.2660200000
  S         5.4061800000        6.5814300000       -7.6872200000
  O         5.0309200000        5.2951700000       -8.2878200000
  F         3.1622000000        7.0864900000       -6.4584200000
  N         6.0213400000        5.9806100000       -6.1023200000
  O         7.4321400000        4.0825800000       -5.2842200000
  F         3.3545700000        7.9691500000       -8.4086200000
  S         7.5979400000        5.2012700000       -6.2532200000
  O         7.7936400000        4.9294200000       -7.6445200000
  F         9.8865400000        5.6761300000       -5.4615200000
  F         8.2220400000        6.7969300000       -4.4541200000
  C         8.7367400000        6.3791000000       -5.5918200000
  F         8.9697400000        7.5046000000       -6.3756200000
  O         4.8827200000        0.1635000000        5.0970500000
  F         2.2113900000       -1.0969000000        5.2151500000
  C         2.9954800000       -1.6114000000        4.2589600000
  S         4.5440800000       -0.6873000000        3.9118100000
  O         4.3194500000       -0.0087000000        2.6487800000
  F         3.2809200000       -2.8312000000        4.6302500000
  N         5.9594400000       -1.6497000000        3.6845900000
  O         6.8397400000       -3.7942000000        2.8350600000
  F         2.2113100000       -1.7874000000        3.1486000000
  S         6.0851400000       -2.6264000000        2.3524800000
  O         4.7123100000       -2.8320000000        1.8491700000
  F         8.4168400000       -1.4635000000        1.8904500000
  F         6.7311400000       -0.2749000000        1.3821500000
  C         7.1792400000       -1.5172000000        1.3629600000
  F         7.2967400000       -1.9753000000        0.1087000000
  O        -1.8924600000        6.1701600000        4.1390400000
  H        -2.8052500000        6.2958300000        4.6647400000
  H        -1.6286900000        5.1512900000        4.1814200000
  O        -0.3728200000       -7.2248000000        6.2435400000
  H         0.0565400000       -8.0369000000        5.7735900000
  H        -1.1830900000       -7.5721000000        6.7392200000
  O        -4.3581500000       -4.6490000000        3.7296500000
  H        -4.8143600000       -5.4628000000        4.0878600000
  H        -5.0222600000       -3.8532000000        3.8822100000
  O        -4.1396600000       -5.9610600000        8.2126800000
  H        -3.5414600000       -6.7754300000        8.1360800000
  H        -4.9836600000       -5.9819100000        7.6351800000
  O        -5.6905600000       -4.4282000000        0.5098400000
  H        -5.7740600000       -4.4655000000       -0.4605000000
  H        -4.9225600000       -3.8063000000        0.6829000000
  O        -2.4052400000        8.1885100000        8.0119800000
  H        -3.0165000000        7.4152700000        7.7994800000
  H        -1.7615300000        7.9390000000        8.7255800000
  O        -2.3394100000       -4.7296000000        5.7958000000
  H        -2.9529100000       -4.5874000000        4.9571900000
  H        -2.8136900000       -4.3103000000        6.5842000000
  O         1.5652000000        2.2860800000       -4.3788200000
  H         0.8598900000        2.8096700000       -4.8453200000
  H         1.4164000000        1.2871000000       -4.4017200000
  O         3.3324000000        1.2561000000        7.2204100000
  H         3.1905300000        0.2402000000        7.3741800000
  H         3.0667700000        1.4836300000        6.2016600000
  O         7.4427400000       -2.5456000000        5.9547000000
  H         6.9020400000       -2.3319000000        5.0940500000
  H         7.3813400000       -3.6083000000        6.1126600000
  O         5.5851400000        2.1919500000       -7.8706200000
  H         6.5416400000        1.9129600000       -7.5328200000
  H         5.7346400000        3.1042500000       -8.1967200000
  O         0.8835000000       -1.7004000000        0.3664400000
  H         0.3813000000       -2.4861000000        0.6927400000
  H         1.7895100000       -1.9772000000       -0.0420700000
  O        -1.1643100000       -8.2273500000        2.8754700000
  H        -1.5761700000       -9.0436400000        3.4446000000
  H        -0.1718400000       -8.0616000000        2.9780100000
  O        -1.7485300000       -4.1207000000       -6.6311200000
  H        -0.9035400000       -4.3324000000       -6.0806200000
  H        -1.7565000000       -3.1902000000       -7.0894200000
  O        -0.0608000000        1.1475000000       -1.7778700000
  H        -0.0634700000        0.5031000000       -2.5603000000
  H         0.4762700000        1.9606900000       -1.9794500000
  O         0.7701500000       -4.7886000000        3.8129800000
  H         1.5990300000       -4.3265000000        4.1916000000
  H         0.6570000000       -4.5000000000        2.8115200000
  O        -4.9075600000        5.0913500000       -1.8586100000
  H        -5.9185600000        5.1205300000       -1.8237400000
  H        -4.7055600000        5.2988100000       -2.8636200000
  O        -3.8780300000       -7.0299900000        0.5187100000
  H        -3.8315500000       -6.2686400000       -0.1313900000
  H        -4.8015600000       -7.4460600000        0.4117800000
  O         1.5267400000        8.1588600000       -4.1813200000
  H         2.3876200000        8.4025500000       -3.6694200000
  H         1.1916100000        7.3149800000       -3.7390200000
  O        -2.2627800000       -4.8253000000        1.9482700000
  H        -2.8637500000       -5.2086000000        2.6971500000
  H        -2.8439500000       -4.0524000000        1.6038200000
  O         4.5242200000        3.3513000000       -5.6955200000
  H         5.5332000000        3.5270700000       -5.5148200000
  H         3.8577400000        4.1603500000       -5.5111200000
  O         0.1698000000       -4.0762000000        1.2106100000
  H         0.7907700000       -4.7934000000        0.8478900000
  H        -0.7217200000       -4.5382000000        1.3940900000
  O        -4.2418000000        4.0039500000        1.7165700000
  H        -4.4819600000        4.4343700000        2.5940800000
  H        -3.9736200000        3.0763100000        1.8977600000
  O         0.4831800000       -8.2531700000       -7.4854200000
  H         0.8283200000       -9.2086800000       -7.4896200000
  H         0.8154800000       -7.9117800000       -8.4107200000
  O        -3.0975900000        6.7162100000       -0.0028200000
  H        -2.7242000000        7.3257100000       -0.7166200000
  H        -3.6701200000        7.3298200000        0.6024100000
  O        -7.3249600000       -5.2843200000        2.4992500000
  H        -6.7569600000       -4.8252000000        1.7342000000
  H        -6.7478600000       -5.6613200000        3.1673300000
  O        -6.8226600000       -0.4371000000        4.7314800000
  H        -6.0029600000        0.1199000000        4.3781900000
  H        -7.5361600000        0.2012000000        5.0870700000
  O         0.5904600000       -4.0038000000        6.9928800000
  H         0.5891000000       -2.9704000000        7.0227900000
  H         1.1101600000       -4.3146000000        7.8799800000
  O         7.8995400000        1.6939500000       -6.6361200000
  H         7.8973400000        2.5366000000       -6.0531200000
  H         8.4159400000        0.9495000000       -6.1423200000
  O         7.1943400000        0.0876000000        6.9617000000
  H         7.1607400000       -0.7721000000        6.4263600000
  H         7.3318400000       -0.1563000000        7.9669800000
  O        -0.7690700000       -7.4053400000       -0.4163700000
  H        -1.1050000000       -7.0354200000       -1.3510800000
  H         0.1830800000       -7.7148800000       -0.5681300000
  O        -6.2376600000       -3.0382000000        4.2505700000
  H        -6.9732600000       -3.5133000000        3.6937200000
  H        -6.2952600000       -1.9475000000        4.1942600000
  O         6.8303400000        6.1602700000        1.8166700000
  H         7.3135400000        7.0576100000        1.9896800000
  H         7.2995400000        5.4818700000        2.3483100000
  O        -2.3248100000        3.0924500000       -0.4692100000
  H        -1.4026200000        3.1051500000       -0.0512100000
  H        -2.6774700000        2.1509100000       -0.4801500000
  O         5.0429000000        7.5638100000       -3.6527200000
  H         4.8788400000        8.4902600000       -3.3089200000
  H         5.7865400000        7.5258900000       -4.3270200000
  O         4.9642600000        7.0493800000       -0.9905700000
  H         4.9986700000        8.0440800000       -0.6693800000
  H         5.3399900000        7.2127600000       -1.9063100000
  O         0.4376400000        7.2174300000        5.0622000000
  H        -0.3144700000        6.8925000000        4.4190100000
  H         1.2639900000        6.6917200000        4.9276000000
  O         0.9161600000       -5.5058800000       -5.7027200000
  H         1.0101100000       -4.9420000000       -4.9318200000
  H         1.6464100000       -5.1038000000       -6.2899200000
  O         3.3354300000        5.4404300000       -4.3604200000
  H         4.2231700000        5.8883200000       -4.0111200000
  H         2.8385800000        6.0952400000       -4.9299200000
