     341
 i =        0, time =        0.000, E =     -4294.7673113402
 Li         0.0000000000        0.0000000000        0.0000000000
 Li        -4.3093700000       -0.3360000000       -1.0552000000
 Li         1.4944900000       -3.5814000000        7.0954800000
 Li         2.5399500000       -5.6679600000       -4.4846100000
 Li         6.1620200000       -5.8083000000       -7.4495100000
 Li        -6.3774700000       -7.8859500000       -7.5437500000
 Li         6.7088900000        3.1080300000        2.1311000000
 Li         0.8300600000       -7.6866500000        3.9398000000
 Li        -7.8758800000       -7.3857500000        3.6428000000
 Li         7.7833300000        2.8449900000       -8.2516900000
 Li         5.6521600000       -3.1112000000       -0.4173000000
 Li        -6.0188700000       -2.5637000000       -2.8362200000
 Li        -3.6252700000        6.7622200000       -2.6171000000
 Li         0.7782400000        2.7216700000        7.7592100000
  O        -7.2364800000        4.2736400000        4.1689000000
  F        -7.3602000000        0.5008000000        3.9839000000
  C        -6.6459700000        1.6516000000        4.0239000000
  S        -7.5794000000        3.0499300000        4.8606100000
  O        -7.4937900000        2.9387600000        6.3086500000
  F        -5.4792700000        1.4602000000        4.7001700000
  N        -9.1489500000        2.6367400000        4.2471000000
  O       -10.2673400000        2.6688700000        6.6872000000
  F        -6.3841700000        1.9542000000        2.7417000000
  S       -10.4991500000        2.1567000000        5.2982000000
  O       -11.7213900000        2.5720300000        4.6189100000
  F       -11.6870000000        0.0049000000        6.0032000000
  F        -9.4894700000       -0.1135000000        6.2791800000
  C       -10.5239800000        0.3476000000        5.4351300000
  F       -10.3997800000       -0.2956000000        4.2714000000
  O         1.7977600000        5.2091000000       -6.6496000000
  F         4.1625000000        8.0074100000       -7.9024200000
  C         2.9276200000        7.5075500000       -7.5665000000
  S         2.9835300000        6.0607400000       -6.4229400000
  O         3.3709500000        6.3746900000       -5.0859000000
  F         2.2274600000        8.5629900000       -7.0282500000
  N         4.2101300000        4.9696400000       -7.1185700000
  O         6.5404100000        4.0738500000       -7.2691800000
  F         2.3526900000        7.1495100000       -8.6973700000
  S         5.7419200000        4.8518300000       -6.3358400000
  O         6.1564400000        6.2709700000       -6.3511000000
  F         5.8315700000        5.4469100000       -3.7838500000
  F         6.6988400000        3.5032600000       -4.3018900000
  C         5.6788500000        4.3645500000       -4.5774200000
  F         4.5256400000        3.8057800000       -4.2448500000
  O        -7.7361700000       -7.7832800000        7.0258600000
  F        -9.5616300000      -10.4177400000        7.4526900000
  C        -9.8223700000       -9.5947000000        6.3915900000
  S        -9.1716400000       -7.9095700000        6.6753000000
  O        -9.9137600000       -7.0905800000        7.6020800000
  F        -9.2845800000      -10.1381700000        5.2878900000
  N        -9.4337700000       -7.0630900000        5.1323500000
  O       -10.3272600000       -5.1452400000        3.7724000000
  F       -11.1646600000       -9.4631600000        6.2201000000
  S       -10.2980900000       -5.5239700000        5.1663200000
  O       -11.6519600000       -5.8143300000        5.7684700000
  F        -9.6274000000       -4.2961100000        7.4568200000
  F        -9.9191800000       -3.0546000000        5.8477900000
  C        -9.4192700000       -4.2066000000        6.1259000000
  F        -8.0582600000       -4.1209000000        5.7548900000
  O         2.0262200000        6.0775700000        1.3236000000
  F         1.2454300000        6.6962300000       -1.4017000000
  C         0.5542200000        7.2615000000       -0.4340000000
  S         1.3975600000        7.3716900000        1.1125000000
  O         0.5512700000        8.0247000000        2.1128000000
  F         0.1567100000        8.5259400000       -0.8285000000
  N         2.5897600000        8.5648600000        0.8400000000
  O         4.2057700000        7.0769300000       -0.3872000000
  F        -0.5726700000        6.6023900000       -0.2766000000
  S         4.2439400000        8.1729500000        0.5547000000
  O         4.7874100000        9.4611400000        0.1277000000
  F         4.4242800000        6.5337400000        2.5941000000
  F         5.1121800000        8.4950200000        3.0750000000
  C         5.0098600000        7.5956100000        2.0918000000
  F         6.2853800000        7.1879500000        1.9544000000
  O         2.0540900000       -4.4060900000        1.6854000000
  F         2.5543100000       -2.4770000000        3.8229000000
  C         3.2266600000       -2.2638000000        2.6710000000
  S         2.4708300000       -3.0948000000        1.1971000000
  O         3.3407600000       -3.1240000000       -0.0026000000
  F         3.3337500000       -0.9101000000        2.5068000000
  N         0.9788200000       -2.3279000000        0.7094000000
  O        -0.1233200000       -3.1558000000        2.8778000000
  F         4.5221300000       -2.6656000000        2.8638000000
  S        -0.4303700000       -2.6978000000        1.5881000000
  O        -0.9826700000       -1.3594000000        1.4809000000
  F        -1.7637700000       -3.6141000000       -0.4831000000
  F        -2.4407700000       -4.5145300000        1.3267000000
  C        -1.3033700000       -4.0848000000        0.7156000000
  F        -0.4540700000       -5.0893800000        0.4880000000
  O        -0.0361700000       -0.7037000000       -2.0588000000
  F         1.7617100000       -2.1545000000       -5.1767300000
  C         1.6011600000       -1.1972000000       -4.2148600000
  S         0.0670300000       -1.5731000000       -3.2161500000
  O        -0.2581000000       -2.9861000000       -2.9508200000
  F         2.7132000000       -1.3938000000       -3.4540700000
  N        -1.3743700000       -1.0788000000       -4.0889700000
  O        -0.8545700000       -2.7724000000       -5.8811300000
  F         1.5184600000        0.0561000000       -4.6761100000
  S        -1.6858700000       -1.6037000000       -5.7134300000
  O        -3.1324700000       -1.7553000000       -5.5471700000
  F         0.0246700000       -0.5826000000       -7.3951000000
  F        -1.3577700000        0.8133000000       -6.4401600000
  C        -1.2455700000       -0.3967000000       -7.0163600000
  F        -2.0744700000       -0.4644000000       -8.1101800000
  O         1.5644400000        5.1244400000        4.8063100000
  F        -2.2763700000        4.7635200000        4.6067600000
  C        -1.1259700000        5.4535700000        4.7590900000
  S         0.3597800000        4.3911100000        4.5021700000
  O         0.2491900000        3.7552400000        3.1853000000
  F        -1.0228700000        6.5682600000        3.9609000000
  N         0.0882700000        3.1063900000        5.6660600000
  O         1.7289300000        1.5740000000        4.3543000000
  F        -1.0652700000        5.9015100000        6.0817200000
  S         0.6540200000        1.4922000000        5.3422100000
  O         1.1549900000        1.0183000000        6.6849400000
  F        -0.3010400000       -0.8056000000        4.6669800000
  F        -1.0551700000        0.9120000000        3.4507000000
  C        -0.7226700000        0.5245000000        4.7671900000
  F        -1.8209700000        0.6828000000        5.4981200000
  O        -3.0525700000       -8.0751200000       -1.6399000000
  F        -5.0171700000       -8.2151500000        0.6493000000
  C        -4.2963700000       -7.1006200000        0.4478000000
  S        -3.8135700000       -6.8815400000       -1.2070000000
  O        -3.3193700000       -5.5050600000       -1.5375000000
  F        -4.9832700000       -6.0712000000        1.0238000000
  N        -5.2587700000       -7.3076200000       -2.1244700000
  O        -5.9872700000       -4.8071600000       -1.8604000000
  F        -3.2024700000       -7.3499500000        1.2339000000
  S        -6.3031700000       -6.0037700000       -2.6243300000
  O        -6.1330700000       -6.1061000000       -4.0460900000
  F        -8.2169500000       -7.7045900000       -2.9009200000
  F        -8.8500100000       -5.5596900000       -2.3581500000
  C        -7.9433400000       -6.5519700000       -2.1705100000
  F        -7.9751300000       -6.9504900000       -0.8790000000
  O         7.7406100000       -2.7137000000       -0.3792000000
  F         8.3843700000       -2.0309000000        2.5779000000
  C         9.3402600000       -2.2623000000        1.6589000000
  S         8.9049900000       -1.9083000000       -0.0391000000
  O        10.0095300000       -1.9134000000       -0.9445000000
  F        10.3421300000       -1.4511000000        2.0723000000
  N         8.2606700000       -0.2558000000        0.0240000000
  O         5.7982800000       -0.9482000000        0.3450000000
  F         9.6192300000       -3.5681000000        1.8521000000
  S         6.6268200000        0.2490000000        0.0525000000
  O         6.7784600000        1.3217000000        1.0158000000
  F         5.1049200000        1.1004000000       -1.8470000000
  F         6.4538500000       -0.4574000000       -2.5148000000
  C         6.2951000000        0.5732000000       -1.6857000000
  F         7.1531900000        1.4449000000       -2.1952400000
  O        -1.7409700000        5.6444500000       -2.8378800000
  F         0.6333000000        3.0193300000       -4.5522600000
  C         0.2240700000        3.9652700000       -3.6521800000
  S        -1.4285700000        4.7077700000       -3.9193300000
  O        -2.4682700000        3.7139300000       -4.2146900000
  F         0.2851700000        3.3897600000       -2.4360300000
  N        -1.1567700000        5.7056500000       -5.3506100000
  O        -2.7950700000        7.4253600000       -4.6213200000
  F         1.1802200000        4.9627900000       -3.6817100000
  S        -1.5543700000        7.3731800000       -5.3932500000
  O        -0.3196500000        8.0062900000       -4.8644700000
  F        -1.3010700000        9.0831700000       -7.2940000000
  F        -2.6525700000        7.3937300000       -7.8086800000
  C        -1.5695700000        7.7906600000       -7.1329200000
  F        -0.5366700000        7.2404400000       -7.7931100000
  O        -6.3566700000       -6.3985200000        4.7273500000
  F        -3.9391700000       -8.7105100000        4.2922000000
  C        -4.2660700000       -8.0767400000        5.4347200000
  S        -4.9597700000       -6.5044600000        4.9809400000
  O        -3.9745700000       -6.0296500000        4.0206000000
  F        -5.1823700000       -8.7703500000        6.1211200000
  N        -4.9372700000       -5.3428600000        6.2378600000
  O        -3.2671700000       -4.0521000000        7.7755900000
  F        -3.0997700000       -8.0387600000        6.1222100000
  S        -3.4994700000       -4.3535800000        6.3489500000
  O        -2.4412700000       -5.0696200000        5.7975000000
  F        -2.7913700000       -2.0273000000        5.4963500000
  F        -4.8521700000       -2.1520000000        6.0147100000
  C        -3.8492700000       -2.8639000000        5.4818500000
  F        -4.2625700000       -3.0458000000        4.2117000000
  O        -5.2854700000        5.7012600000       -3.8370700000
  F        -7.0014700000        2.5513200000       -5.1129700000
  C        -6.2134700000        3.1764900000       -4.3279000000
  S        -6.0335700000        4.9145900000       -4.7987500000
  O        -7.2967800000        5.5186100000       -5.2169900000
  F        -6.6866700000        3.1258400000       -3.1157000000
  N        -4.9818700000        4.9804500000       -6.1667100000
  O        -6.8410700000        4.0895300000       -7.7682900000
  F        -5.0247700000        2.5550200000       -4.2801000000
  S        -5.6685700000        4.9992000000       -7.7551800000
  O        -6.0284700000        6.3896400000       -8.0785100000
  F        -3.2238700000        5.1240100000       -8.7411200000
  F        -4.7326700000        4.4545400000      -10.2068600000
  C        -4.3769700000        4.4081500000       -8.8732800000
  F        -4.0997700000        3.1024400000       -8.7060800000
  O        -8.1760900000        3.5830900000        0.9076000000
  F        -7.0023700000        6.2303100000       -1.5708000000
  C        -7.9609200000        5.4943700000       -0.9469000000
  S        -7.2757000000        4.6578500000        0.4708000000
  O        -6.7942700000        5.7152800000        1.3705000000
  F        -8.9422000000        6.2969400000       -0.4521000000
  N        -5.9416700000        3.8353500000       -0.3110000000
  O        -3.5945700000        3.4433000000       -0.9497000000
  F        -8.4684300000        4.6285000000       -1.7968000000
  S        -4.3261700000        4.4912200000       -0.1891000000
  O        -4.5170700000        5.7275700000       -0.8712000000
  F        -2.3444700000        4.5313200000        1.4785000000
  F        -4.1036700000        3.6517800000        2.2709000000
  C        -3.7196700000        4.6176600000        1.5251000000
  F        -4.1486700000        5.7342700000        2.0981000000
  O         4.5126200000       -1.9190000000       -7.1917900000
  F         5.2425100000        1.2330000000       -7.0803600000
  C         5.2203500000        0.4624000000       -5.9532000000
  S         5.5385500000       -1.2601000000       -6.3643300000
  O         6.0393000000       -1.9336000000       -5.1614400000
  F         6.1274100000        0.9262000000       -5.0766200000
  N         6.9248900000       -1.1906000000       -7.4057300000
  O         8.0789800000        1.0448000000       -7.2908000000
  F         4.1177500000        0.6859000000       -5.2624100000
  S         8.3851300000       -0.3950000000       -6.9651800000
  O         8.4272200000       -0.6761000000       -5.5158500000
  F         9.6615300000       -0.7709000000       -9.2218800000
  F        10.1922300000       -2.1861000000       -7.5586000000
  C         9.8216300000       -0.9168000000       -7.8700000000
  F        10.9248300000       -0.1369000000       -7.6110500000
  O         5.9166800000       -3.2306000000       -2.4388500000
  H         5.8325100000       -2.7078000000       -3.3382900000
  H         6.9269700000       -3.5657000000       -2.3855500000
  O         8.2835600000        7.9238600000       -6.1391300000
  H         7.6406900000        7.1498500000       -6.1642800000
  H         9.0444700000        7.5955000000       -5.5533200000
  O        -1.6855700000       -5.0420800000       -4.0362100000
  H        -2.3632700000       -5.2229700000       -3.3011200000
  H        -0.9672700000       -4.4767600000       -3.5240600000
  O         0.6054100000       -6.1820700000       -5.3732400000
  H         0.5014500000       -7.1954900000       -5.0953700000
  H        -0.1958600000       -5.6928300000       -4.9642500000
  O         0.4905200000       -4.3713800000       -7.7085000000
  H        -0.1160600000       -3.7434000000       -7.0854400000
  H         0.7899200000       -5.1530500000       -7.1568700000
  O         2.2107700000       -6.2927700000        3.5622000000
  H         1.8993200000       -5.8855500000        2.6734000000
  H         3.2365300000       -6.2833100000        3.6224000000
  O        -5.7796700000        1.0142000000       -1.0295000000
  H        -6.7526700000        0.9925000000       -0.7894000000
  H        -5.6196700000        1.9726000000       -1.1784000000
  O         4.2314500000       -5.1511600000       -7.6022800000
  H         3.6455400000       -5.7676600000       -8.1416200000
  H         4.0605600000       -4.1401000000       -7.6347200000
  O         2.2353900000       -1.5406000000        7.1944400000
  H         1.8379000000       -0.6506000000        6.7706800000
  H         3.0325200000       -1.2762000000        7.7809000000
  O         2.8008700000        3.4927100000        7.1302600000
  H         3.6910800000        3.5976500000        7.6273700000
  H         3.0803900000        3.3943800000        6.1496500000
  O         1.7745100000        0.7612000000        0.4826000000
  H         2.0936400000        1.0157000000        1.4235000000
  H         2.1627800000        1.5099000000       -0.1142000000
  O        -3.6472700000       -0.2402000000        0.8971000000
  H        -2.7401700000       -0.1082000000        1.2162000000
  H        -4.2649700000        0.1606000000        1.5711000000
  O        -5.5227700000       -8.2843400000       -5.7188900000
  H        -4.7823700000       -8.9260500000       -5.5432300000
  H        -5.4022700000       -7.5683500000       -4.9933300000
  O         2.7586800000        2.6493400000        2.0443000000
  H         2.7938600000        2.1674000000        2.9388000000
  H         1.9083700000        3.1681200000        2.1399000000
  O         5.3296300000       -4.7063300000        0.9252000000
  H         4.9097600000       -5.5344200000        0.5508000000
  H         5.3552300000       -4.7615200000        1.9708000000
  O        -5.8664700000       -5.9270400000       -7.7681200000
  H        -5.1226700000       -5.4936900000       -7.2549200000
  H        -5.4692700000       -5.7837300000       -8.7389600000
  O         5.0324100000        3.8450300000        1.0997000000
  H         4.8928000000        4.4164200000        0.2931000000
  H         4.1723800000        3.3151000000        1.3858000000
  O         4.5363400000       -5.1560300000       -4.4444200000
  H         4.9271900000       -5.9905400000       -4.8962200000
  H         5.2971800000       -4.7119100000       -3.9619400000
  O         1.8354300000        2.1953000000       -7.0185800000
  H         2.0059800000        1.4999000000       -6.3524300000
  H         2.1614200000        3.1660100000       -6.8412000000
  O         0.1826400000       -3.7944000000        5.6014600000
  H        -0.3752200000       -4.6677600000        5.6035700000
  H         0.2788200000       -3.4702000000        4.6488400000
  O         2.6885200000        3.1657900000       -0.8124000000
  H         2.5694100000        4.0777200000       -0.3333000000
  H         3.3039100000        3.1876900000       -1.6259000000
  O         8.1881100000       -5.9756200000        2.0148000000
  H         7.4815000000       -5.2425200000        2.3806000000
  H         8.7129700000       -5.6912700000        1.1683000000
  O        -3.1427700000        0.7710000000       -2.4303400000
  H        -3.2686700000        1.5977000000       -2.9695800000
  H        -2.3766700000        0.2592000000       -2.8448400000
  O        -8.0407400000       -3.1773000000       -3.7765900000
  H        -7.3365600000       -3.4459000000       -4.4682300000
  H        -8.6157200000       -2.4566000000       -4.2301100000
  O        -3.8287700000       -2.3722000000       -2.4067900000
  H        -2.9540700000       -2.0923000000       -2.8742600000
  H        -3.7308700000       -3.2455000000       -1.8752000000
  O         0.5065600000       -7.4956100000        6.1537600000
  H         1.0456900000       -8.3123800000        6.4348300000
  H        -0.4921700000       -7.3998700000        6.5277000000
  O         1.6165400000       -5.0401300000       -2.6774900000
  H         1.2591900000       -4.0433000000       -2.6001500000
  H         1.6692000000       -5.4186000000       -1.7435000000
  O        -0.4171200000        3.9889200000       -7.6548100000
  H        -1.2998700000        4.3824100000       -7.4851400000
  H         0.1989200000        4.4834800000       -6.9842900000
  O        -6.8989700000       -0.6508000000       -3.2203200000
  H        -6.7799700000        0.2905000000       -2.8076500000
  H        -7.3633400000       -0.6563000000       -4.1158800000
  O        -5.5041700000       -3.0995000000       -4.8764100000
  H        -4.7006700000       -2.4828000000       -5.0385700000
  H        -5.4243700000       -3.9461000000       -5.4443000000
  O        -1.3947700000        1.6742000000        0.3793000000
  H        -2.3476700000        1.8899000000        0.0850000000
  H        -0.9681700000        2.5863100000        0.5571000000
  O        -0.9595700000       -6.2305700000        3.6882000000
  H        -1.0383700000       -5.6105600000        2.8983000000
  H        -1.7337700000       -6.1786900000        4.4115000000
  O         2.5345200000        7.5700700000        4.7552500000
  H         2.2173600000        6.5789400000        4.6703500000
  H         3.5078300000        7.5999300000        4.8122000000
  O         3.1566700000       -7.9110400000       -3.8155600000
  H         3.0898600000       -8.7961600000       -4.3419600000
  H         3.2812400000       -8.1482200000       -2.8108600000
  O         5.9872300000       -7.2243200000       -5.6888900000
  H         6.9679600000       -7.5245800000       -5.7803700000
  H         5.4094700000       -8.0148200000       -5.3153200000
  O        -7.2601700000        7.1899200000        3.4526000000
  H        -7.3073000000        6.2647600000        3.8846000000
  H        -7.0228200000        6.9744300000        2.4773000000
  O         2.4742800000       -5.6698000000        6.8640900000
  H         1.6733700000       -6.2795000000        6.5973200000
  H         3.1650900000       -5.7629900000        6.1080400000
  O         8.0682200000       -5.0394400000       -6.7068700000
  H         8.9186400000       -4.6178600000       -7.2097700000
  H         8.1530800000       -5.2167800000       -5.7233000000
  O        -3.7222700000       -4.8633400000       -6.3508400000
  H        -3.0076700000       -4.6970600000       -5.7073800000
  H        -3.3602700000       -4.5766500000       -7.3212300000
